 Abaqus/Standard 3DEXPERIENCE R2018x                  DATE 15-Jul-2024 TIME 11:12:02
 SUMMARY OF JOB INFORMATION:
 STEP  INC ATT SEVERE EQUIL TOTAL  TOTAL      STEP       INC OF       DOF    IF
               DISCON ITERS ITERS  TIME/    TIME/LPF    TIME/LPF    MONITOR RIKS
               ITERS               FREQ
   1     1   1U    0     6     6  0.00       0.00       1.000     
   1     1   2U    0     4     4  0.00       0.00       0.2500    
   1     1   3U    0     9     9  0.00       0.00       0.06250   
   1     1   4     0     6     6  0.0312     0.0312     0.03125   
   1     2   1U    0     6     6  0.0312     0.0312     0.03125   
   1     2   2     0     6     6  0.0391     0.0391     0.007812  
   1     3   1     0     2     2  0.0469     0.0469     0.007812  
   1     4   1     0     2     2  0.0547     0.0547     0.007812  
   1     5   1     0     2     2  0.0664     0.0664     0.01172   
   1     6   1     0     4     4  0.0840     0.0840     0.01758   
   1     7   1     0     4     4  0.110      0.110      0.02637   
   1     8   1U    0     7     7  0.110      0.110      0.03955   
   1     8   2     0     4     4  0.120      0.120      0.009888  
   1     9   1     0     4     4  0.135      0.135      0.01483   
   1    10   1     0     7     7  0.157      0.157      0.02225   
   1    11   1U    0     6     6  0.157      0.157      0.02225   
   1    11   2     0     5     5  0.163      0.163      0.005562  
   1    12   1     0     5     5  0.168      0.168      0.005562  
   1    13   1     0     5     5  0.174      0.174      0.005562  
   1    14   1     0     6     6  0.180      0.180      0.005562  
   1    15   1     0     6     6  0.185      0.185      0.005562  
   1    16   1     0     7     7  0.191      0.191      0.005562  
   1    17   1     0     7     7  0.196      0.196      0.005562  
   1    18   1     0     7     7  0.202      0.202      0.005562  
   1    19   1     0     7     7  0.207      0.207      0.005562  
   1    20   1     0     7     7  0.213      0.213      0.005562  
   1    21   1     0     8     8  0.218      0.218      0.005562  
   1    22   1U    0     9     9  0.218      0.218      0.005562  
   1    22   2     0     6     6  0.221      0.221      0.002781  
   1    23   1     0     2     2  0.224      0.224      0.002781  
   1    24   1     0     6     6  0.227      0.227      0.002781  
   1    25   1     0     3     3  0.230      0.230      0.002781  
   1    26   1U    0     9     9  0.230      0.230      0.002781  
   1    26   2     0     8     8  0.231      0.231      0.001390  
   1    27   1     0     2     2  0.232      0.232      0.001390  
   1    28   1     0     2     2  0.234      0.234      0.001390  
   1    29   1U    0     9     9  0.234      0.234      0.002086  
   1    29   2U    0     9     9  0.234      0.234      0.001043  
   1    29   3U    0     9     9  0.234      0.234      0.0005214 
   1    29   4U    0     9     9  0.234      0.234      0.0002607 
   1    29   5U    0    10    10  0.234      0.234      0.0001304 
                          
 THE ANALYSIS HAS NOT BEEN COMPLETED
