*Heading
** Job name: Job-1 Model name: Model-1
** Generated by: Abaqus/CAE 2018
*Preprint, echo=NO, model=NO, history=NO, contact=NO
**
** PARTS
**
*Part, name=Part-1
*Node
      1,         -0.5,           0.,           0.
      2,         -0.5, -0.0500000007,           0.
      3,         -0.5, -0.100000001,           0.
      4,         -0.5, -0.150000006,           0.
      5,         -0.5, -0.200000003,           0.
      6,         -0.5,        -0.25,           0.
      7,         -0.5, -0.300000012,           0.
      8,         -0.5, -0.349999994,           0.
      9,         -0.5, -0.400000006,           0.
     10,         -0.5, -0.449999988,           0.
     11,         -0.5,         -0.5,           0.
     12,         -0.5, -0.550000012,           0.
     13,         -0.5, -0.600000024,           0.
     14,         -0.5, -0.649999976,           0.
     15,         -0.5, -0.699999988,           0.
     16,         -0.5,        -0.75,           0.
     17,         -0.5, -0.800000012,           0.
     18,         -0.5, -0.850000024,           0.
     19,         -0.5, -0.899999976,           0.
     20,         -0.5, -0.949999988,           0.
** ... 3676 like lines cut
*Element, type=S4R
   1,    1,    2,  178,  177
   2,    2,    3,  179,  178
   3,    3,    4,  180,  179
   4,    4,    5,  181,  180
   5,    5,    6,  182,  181
   6,    6,    7,  183,  182
   7,    7,    8,  184,  183
   8,    8,    9,  185,  184
   9,    9,   10,  186,  185
  10,   10,   11,  187,  186
  11,   11,   12,  188,  187
  12,   12,   13,  189,  188
  13,   13,   14,  190,  189
  14,   14,   15,  191,  190
  15,   15,   16,  192,  191
  16,   16,   17,  193,  192
  17,   17,   18,  194,  193
  18,   18,   19,  195,  194
  19,   19,   20,  196,  195
  20,   20,   21,  197,  196
** ... 3480 like lines cut
*Nset, nset=Set-1, generate
    1,  3696,     1
*Elset, elset=Set-1, generate
    1,  3500,     1
** Section: Section-1
*Shell Section, elset=Set-1, material=Material-1
0.23, 5
*End Part
**  
**
** ASSEMBLY
**
*Assembly, name=Assembly
**  
*Instance, name=Part-1-1, part=Part-1
*End Instance
**  
*Nset, nset=Set-1, instance=Part-1-1
 1761,
*Nset, nset=Set-2, instance=Part-1-1
 1761,
*Nset, nset=Set-3, instance=Part-1-1, generate
    1,  3521,   176
*Elset, elset=Set-3, instance=Part-1-1, generate
    1,  3326,   175
*Nset, nset=Set-4, instance=Part-1-1, generate
    1,  3521,   176
*Elset, elset=Set-4, instance=Part-1-1, generate
    1,  3326,   175
*Nset, nset=Set-5, instance=Part-1-1, generate
    1,  3521,   176
*Elset, elset=Set-5, instance=Part-1-1, generate
    1,  3326,   175
*End Assembly
** 
** MATERIALS
** 
*Material, name=Material-1
*Elastic
 1e+06, 0.5
** ----------------------------------------------------------------
** 
** STEP: Step-1
** 
*Step, name=Step-1, nlgeom=YES
*Static
1., 1., 1e-05, 1.
** 
** BOUNDARY CONDITIONS
** 
** Name: Curvature Type: Displacement/Rotation Using Analytical Field: Curvature
*Boundary
Part-1-1.1, 3, 3, 2.44929e-16
Part-1-1.177, 3, 3, 0.309017
Part-1-1.353, 3, 3, 0.587785
Part-1-1.529, 3, 3, 0.809017
Part-1-1.705, 3, 3, 0.951056
Part-1-1.881, 3, 3, 1.
Part-1-1.1057, 3, 3, 0.951057
Part-1-1.1233, 3, 3, 0.809017
Part-1-1.1409, 3, 3, 0.587785
Part-1-1.1585, 3, 3, 0.309017
Part-1-1.1761, 3, 3, -1.22465e-16
Part-1-1.1937, 3, 3, -0.309017
Part-1-1.2113, 3, 3, -0.587785
Part-1-1.2289, 3, 3, -0.809017
Part-1-1.2465, 3, 3, -0.951057
Part-1-1.2641, 3, 3, -1.
Part-1-1.2817, 3, 3, -0.951056
Part-1-1.2993, 3, 3, -0.809017
Part-1-1.3169, 3, 3, -0.587785
Part-1-1.3345, 3, 3, -0.309017
Part-1-1.3521, 3, 3
** Name: Fixed X Type: Displacement/Rotation
*Boundary
Set-2, 1, 1
** Name: Fixed Y Type: Displacement/Rotation
*Boundary
Set-3, 2, 2
** Name: X-rotation Type: Displacement/Rotation
*Boundary
Set-4, 4, 4
** 
** OUTPUT REQUESTS
** 
*Restart, write, frequency=0
** 
** FIELD OUTPUT: F-Output-1
** 
*Output, field, variable=PRESELECT
** 
** HISTORY OUTPUT: H-Output-1
** 
*Output, history, variable=PRESELECT
*End Step
