 Abaqus/Standard 3DEXPERIENCE R2018x                  DATE 15-Jul-2024 TIME 11:17:35
 SUMMARY OF JOB INFORMATION:
 STEP  INC ATT SEVERE EQUIL TOTAL  TOTAL      STEP       INC OF       DOF    IF
               DISCON ITERS ITERS  TIME/    TIME/LPF    TIME/LPF    MONITOR RIKS
               ITERS               FREQ
   1     1   1U    0     5     5  0.00       0.00       1.000     
   1     1   2U    0     4     4  0.00       0.00       0.2500    
   1     1   3     0     9     9  0.0625     0.0625     0.06250   
   1     2   1U    0     9     9  0.0625     0.0625     0.06250   
   1     2   2     0     6     6  0.0781     0.0781     0.01562   
   1     3   1     0     8     8  0.0938     0.0938     0.01562   
   1     4   1U    0     9     9  0.0938     0.0938     0.01562   
   1     4   2U    0     6     6  0.0938     0.0938     0.007812  
   1     4   3     0     7     7  0.0957     0.0957     0.001953  
   1     5   1U    0     6     6  0.0957     0.0957     0.001953  
   1     5   2U    0    11    11  0.0957     0.0957     0.0004883 
   1     5   3     0     7     7  0.0958     0.0958     0.0001221 
   1     6   1     0     4     4  0.0959     0.0959     0.0001221 
   1     7   1     0     8     8  0.0961     0.0961     0.0001221 
   1     8   1U    0     5     5  0.0961     0.0961     0.0001221 
   1     8   2U    0     9     9  0.0961     0.0961     3.052e-05 
   1     8   3U    0    11    11  0.0961     0.0961     1.000e-05 
                          
 THE ANALYSIS HAS NOT BEEN COMPLETED
